miqcp/testcases/nesta_case29_edin__sad.m
%%%%%%%%%%%%%%%%%%%%%%%%%%%%%%%%%%%%%%%%%%%%%%%%%%%%%%%%%%%%%%%%%%%%%%%%%%%
%%%%                                                                  %%%%%
%%%%      NICTA Energy System Test Case Archive (NESTA) - v0.7.0      %%%%%
%%%%           Optimal Power Flow - Small Angle Difference            %%%%%
%%%%                         05 - June - 2017                         %%%%%
%%%%                                                                  %%%%%
%%%%%%%%%%%%%%%%%%%%%%%%%%%%%%%%%%%%%%%%%%%%%%%%%%%%%%%%%%%%%%%%%%%%%%%%%%%
function mpc = nesta_case29_edin__sad
mpc.version = '2';
mpc.baseMVA = 100.0;

%% area data
%	area	refbus
mpc.areas = [
	1	 1;
];

%% bus data
%	bus_i	type	Pd	Qd	Gs	Bs	area	Vm	Va	baseKV	zone	Vmax	Vmin
mpc.bus = [
	1	 2	 468.0	 102.0	 0.0	 0.0	 1	    1.03067	    9.87209	 275.0	 1	    1.10000	    0.90000;
	2	 2	 513.0	 113.0	 0.0	 0.0	 1	    1.10000	   10.91504	 275.0	 1	    1.10000	    0.90000;
	3	 2	 555.0	 105.0	 0.0	 0.0	 1	    1.04007	    7.87814	 132.0	 1	    1.10000	    0.90000;
	4	 2	 1308.0	 317.0	 0.0	 0.0	 1	    1.10000	    7.87814	 275.0	 1	    1.10000	    0.90000;
	5	 2	 502.0	 128.0	 0.0	 0.0	 1	    1.10000	    4.88262	 400.0	 1	    1.10000	    0.90000;
	6	 2	 1176.0	 315.0	 0.0	 0.0	 1	    1.09328	    4.84125	 400.0	 1	    1.10000	    0.90000;
	7	 2	 745.0	 171.0	 0.0	 0.0	 1	    1.10000	    6.81395	 400.0	 1	    1.10000	    0.90000;
	8	 1	 117.5	 37.4	 0.0	 0.0	 1	    1.09847	    6.79218	 400.0	 1	    1.10000	    0.90000;
	9	 1	 130.0	 53.0	 0.0	 0.0	 1	    1.09502	    3.92952	 400.0	 1	    1.10000	    0.90000;
	10	 2	 2561.0	 465.0	 0.0	 0.0	 1	    1.08560	    3.75529	 400.0	 1	    1.10000	    0.90000;
	11	 2	 3360.0	 760.0	 0.0	 0.0	 1	    1.10000	    2.83089	 400.0	 1	    1.10000	    0.90000;
	12	 2	 1189.0	 338.0	 0.0	 0.0	 1	    1.10000	    2.42812	 400.0	 1	    1.10000	    0.90000;
	13	 1	 2524.0	 766.0	 0.0	 0.0	 1	    1.07985	    0.05147	 400.0	 1	    1.10000	    0.90000;
	14	 1	 1831.0	 566.5	 0.0	 0.0	 1	    1.09312	    0.06369	 400.0	 1	    1.10000	    0.90000;
	15	 2	 2633.0	 694.6	 0.0	 0.0	 1	    1.10000	    0.75370	 400.0	 1	    1.10000	    0.90000;
	16	 2	 1607.0	 655.0	 0.0	 0.0	 1	    1.10000	    2.12403	 400.0	 1	    1.10000	    0.90000;
	17	 2	 1081.0	 371.0	 0.0	 0.0	 1	    1.05395	    0.02944	 400.0	 1	    1.10000	    0.90000;
	18	 2	 5362.0	 1935.0	 0.0	 0.0	 1	    1.04858	   -0.60878	 400.0	 1	    1.10000	    0.90000;
	19	 2	 2019.0	 648.0	 0.0	 0.0	 1	    1.10000	    1.25030	 400.0	 1	    1.10000	    0.90000;
	20	 2	 1027.36	 305.8	 0.0	 0.0	 1	    1.09764	    0.07474	 400.0	 1	    1.10000	    0.90000;
	21	 2	 702.0	 202.2	 0.0	 0.0	 1	    1.07308	   -0.38890	 400.0	 1	    1.10000	    0.90000;
	22	 2	 1820.0	 665.0	 0.0	 0.0	 1	    1.05983	   -0.91286	 400.0	 1	    1.10000	    0.90000;
	23	 2	 4734.0	 1337.0	 0.0	 0.0	 1	    1.05595	   -0.03264	 400.0	 1	    1.10000	    0.90000;
	24	 1	 1418.0	 528.0	 0.0	 0.0	 1	    1.05203	   -0.68539	 400.0	 1	    1.10000	    0.90000;
	25	 2	 9734.0	 2902.0	 0.0	 0.0	 1	    1.04910	   -3.08353	 400.0	 1	    1.10000	    0.90000;
	26	 2	 1424.0	 434.0	 0.0	 0.0	 1	    1.10000	   -0.04664	 400.0	 1	    1.10000	    0.90000;
	27	 3	 457.0	 138.0	 0.0	 0.0	 1	    1.10000	   -0.00000	 400.0	 1	    1.10000	    0.90000;
	28	 2	 2751.0	 841.0	 0.0	 0.0	 1	    1.07754	   -1.46033	 400.0	 1	    1.10000	    0.90000;
	29	 2	 2577.0	 356.0	 0.0	 0.0	 1	    1.08564	   -1.52314	 400.0	 1	    1.10000	    0.90000;
];

%% generator data
%	bus	Pg	Qg	Qmax	Qmin	Vg	mBase	status	Pmax	Pmin	Pc1	Pc2	Qc1min	Qc1max	Qc2min	Qc2max	ramp_agc	ramp_10	ramp_30	ramp_q	apf
mpc.gen = [
	1	 0.0	 -188.46	 139.22	 -188.46	 1.03067	 100.0	 1	 668.0	 0.0	 0.0	 0.0	 0.0	 0.0	 0.0	 0.0	 0.0	 0.0	 0.0	 0.0	 0.0;
	1	 0.0	 -66.3	 105.23	 -66.3	 1.03067	 100.0	 1	 554.28	 0.0	 0.0	 0.0	 0.0	 0.0	 0.0	 0.0	 0.0	 0.0	 0.0	 0.0	 0.0;
	1	 0.0	 -100.0	 180.0	 -100.0	 1.03067	 100.0	 1	 300.0	 0.0	 0.0	 0.0	 0.0	 0.0	 0.0	 0.0	 0.0	 0.0	 0.0	 0.0	 0.0;
	1	 0.0	 -8.99	 7.8	 -8.99	 1.03067	 100.0	 1	 18.72	 0.0	 0.0	 0.0	 0.0	 0.0	 0.0	 0.0	 0.0	 0.0	 0.0	 0.0	 0.0;
	2	 0.0	 -1.566	 14.33	 -17.67	 1.1	 100.0	 1	 50.6	 0.0	 0.0	 0.0	 0.0	 0.0	 0.0	 0.0	 0.0	 0.0	 0.0	 0.0	 0.0;
	2	 1298.57	 549.863	 1108.51	 -473.36	 1.1	 100.0	 1	 1524.0	 0.0	 0.0	 0.0	 0.0	 0.0	 0.0	 0.0	 0.0	 0.0	 0.0	 0.0	 0.0;
	2	 0.0	 0.0	 0.0	 0.0	 1.1	 100.0	 1	 12.0	 0.0	 0.0	 0.0	 0.0	 0.0	 0.0	 0.0	 0.0	 0.0	 0.0	 0.0	 0.0;
	3	 0.0	 -158.14	 128.34	 -158.14	 1.04007	 100.0	 1	 550.99	 0.0	 0.0	 0.0	 0.0	 0.0	 0.0	 0.0	 0.0	 0.0	 0.0	 0.0	 0.0;
	3	 19.0	 -3.51	 -3.51	 -3.51	 1.04007	 100.0	 1	 19.0	 0.0	 0.0	 0.0	 0.0	 0.0	 0.0	 0.0	 0.0	 0.0	 0.0	 0.0	 0.0;
	3	 419.61	 -66.17	 144.79	 -66.17	 1.04007	 100.0	 1	 553.12	 0.0	 0.0	 0.0	 0.0	 0.0	 0.0	 0.0	 0.0	 0.0	 0.0	 0.0	 0.0;
	3	 0.001	 -7.29	 6.51	 -7.29	 1.04007	 100.0	 1	 15.12	 0.0	 0.0	 0.0	 0.0	 0.0	 0.0	 0.0	 0.0	 0.0	 0.0	 0.0	 0.0;
	4	 0.0	 -0.576	 10.66	 -12.34	 1.1	 100.0	 1	 35.0	 0.0	 0.0	 0.0	 0.0	 0.0	 0.0	 0.0	 0.0	 0.0	 0.0	 0.0	 0.0;
	4	 2284.0	 437.12	 641.47	 -679.0	 1.1	 100.0	 1	 2284.0	 0.0	 0.0	 0.0	 0.0	 0.0	 0.0	 0.0	 0.0	 0.0	 0.0	 0.0	 0.0;
	4	 0.0	 44.777	 150.34	 -137.86	 1.1	 100.0	 1	 440.0	 0.0	 0.0	 0.0	 0.0	 0.0	 0.0	 0.0	 0.0	 0.0	 0.0	 0.0	 0.0;
	4	 259.0	 38.974	 137.27	 -122.95	 1.1	 100.0	 1	 259.0	 0.0	 0.0	 0.0	 0.0	 0.0	 0.0	 0.0	 0.0	 0.0	 0.0	 0.0	 0.0;
	5	 0.0	 200.672	 416.47	 -429.77	 1.1	 100.0	 1	 1074.0	 0.0	 0.0	 0.0	 0.0	 0.0	 0.0	 0.0	 0.0	 0.0	 0.0	 0.0	 0.0;
	5	 0.0	 2.969	 15.39	 -9.94	 1.1	 100.0	 1	 23.2	 0.0	 0.0	 0.0	 0.0	 0.0	 0.0	 0.0	 0.0	 0.0	 0.0	 0.0	 0.0;
	6	 995.808	 -45.425	 439.66	 -484.8	 1.09328	 100.0	 1	 1390.92	 0.0	 0.0	 0.0	 0.0	 0.0	 0.0	 0.0	 0.0	 0.0	 0.0	 0.0	 0.0;
	6	 0.0	 -0.418	 24.8	 -25.5	 1.09328	 100.0	 1	 33.0	 0.0	 0.0	 0.0	 0.0	 0.0	 0.0	 0.0	 0.0	 0.0	 0.0	 0.0	 0.0;
	6	 0.0	 -2.723	 12.09	 -17.49	 1.09328	 100.0	 1	 49.4	 0.0	 0.0	 0.0	 0.0	 0.0	 0.0	 0.0	 0.0	 0.0	 0.0	 0.0	 0.0;
	7	 0.0	 -5.613	 125.76	 -131.02	 1.1	 100.0	 1	 314.25	 0.0	 0.0	 0.0	 0.0	 0.0	 0.0	 0.0	 0.0	 0.0	 0.0	 0.0	 0.0;
	7	 1215.0	 46.872	 681.34	 -469.07	 1.1	 100.0	 1	 1215.0	 0.0	 0.0	 0.0	 0.0	 0.0	 0.0	 0.0	 0.0	 0.0	 0.0	 0.0	 0.0;
	7	 94.596	 -0.636	 220.34	 -205.24	 1.1	 100.0	 1	 1102.0	 0.0	 0.0	 0.0	 0.0	 0.0	 0.0	 0.0	 0.0	 0.0	 0.0	 0.0	 0.0;
	10	 1207.0	 -228.138	 559.19	 -539.68	 1.0856	 100.0	 1	 1207.0	 0.0	 0.0	 0.0	 0.0	 0.0	 0.0	 0.0	 0.0	 0.0	 0.0	 0.0	 0.0;
	10	 1875.0	 -471.816	 697.17	 -829.63	 1.0856	 100.0	 1	 1875.0	 0.0	 0.0	 0.0	 0.0	 0.0	 0.0	 0.0	 0.0	 0.0	 0.0	 0.0	 0.0;
	10	 420.0	 -7.278	 167.95	 -138.04	 1.0856	 100.0	 1	 420.0	 0.0	 0.0	 0.0	 0.0	 0.0	 0.0	 0.0	 0.0	 0.0	 0.0	 0.0	 0.0;
	11	 180.0	 -57.6	 -57.6	 -57.6	 1.1	 100.0	 1	 180.0	 0.0	 0.0	 0.0	 0.0	 0.0	 0.0	 0.0	 0.0	 0.0	 0.0	 0.0	 0.0;
	11	 2406.0	 720.909	 1216.1	 -1006.32	 1.1	 100.0	 1	 2406.0	 0.0	 0.0	 0.0	 0.0	 0.0	 0.0	 0.0	 0.0	 0.0	 0.0	 0.0	 0.0;
	11	 1987.0	 458.516	 873.22	 -571.46	 1.1	 100.0	 1	 1987.0	 0.0	 0.0	 0.0	 0.0	 0.0	 0.0	 0.0	 0.0	 0.0	 0.0	 0.0	 0.0;
	11	 155.0	 14.655	 94.22	 -75.21	 1.1	 100.0	 1	 155.0	 0.0	 0.0	 0.0	 0.0	 0.0	 0.0	 0.0	 0.0	 0.0	 0.0	 0.0	 0.0;
	11	 1039.0	 292.055	 670.32	 -539.07	 1.1	 100.0	 1	 1039.0	 0.0	 0.0	 0.0	 0.0	 0.0	 0.0	 0.0	 0.0	 0.0	 0.0	 0.0	 0.0;
	12	 980.0	 524.291	 579.98	 -418.12	 1.1	 100.0	 1	 980.0	 0.0	 0.0	 0.0	 0.0	 0.0	 0.0	 0.0	 0.0	 0.0	 0.0	 0.0	 0.0;
	12	 0.0	 902.793	 960.05	 -853.06	 1.1	 100.0	 1	 1885.0	 0.0	 0.0	 0.0	 0.0	 0.0	 0.0	 0.0	 0.0	 0.0	 0.0	 0.0	 0.0;
	12	 0.0	 72.677	 116.42	 -94.97	 1.1	 100.0	 1	 210.0	 0.0	 0.0	 0.0	 0.0	 0.0	 0.0	 0.0	 0.0	 0.0	 0.0	 0.0	 0.0;
	12	 1593.207	 289.085	 344.48	 -575.52	 1.1	 100.0	 1	 2004.0	 0.0	 0.0	 0.0	 0.0	 0.0	 0.0	 0.0	 0.0	 0.0	 0.0	 0.0	 0.0;
	15	 0.0	 1673.588	 3535.03	 -2527.87	 1.1	 100.0	 1	 7832.0	 0.0	 0.0	 0.0	 0.0	 0.0	 0.0	 0.0	 0.0	 0.0	 0.0	 0.0	 0.0;
	16	 3987.0	 352.821	 1587.06	 -1289.62	 1.1	 100.0	 1	 3987.0	 0.0	 0.0	 0.0	 0.0	 0.0	 0.0	 0.0	 0.0	 0.0	 0.0	 0.0	 0.0;
	16	 2840.421	 1261.017	 3653.23	 -3354.58	 1.1	 100.0	 1	 7040.0	 0.0	 0.0	 0.0	 0.0	 0.0	 0.0	 0.0	 0.0	 0.0	 0.0	 0.0	 0.0;
	16	 0.0	 146.579	 767.33	 -562.85	 1.1	 100.0	 1	 1218.0	 0.0	 0.0	 0.0	 0.0	 0.0	 0.0	 0.0	 0.0	 0.0	 0.0	 0.0	 0.0;
	17	 2021.0	 -405.94	 814.23	 -405.94	 1.05395	 100.0	 1	 2021.0	 0.0	 0.0	 0.0	 0.0	 0.0	 0.0	 0.0	 0.0	 0.0	 0.0	 0.0	 0.0;
	18	 1982.0	 -534.17	 884.97	 -534.17	 1.04858	 100.0	 1	 1982.0	 0.0	 0.0	 0.0	 0.0	 0.0	 0.0	 0.0	 0.0	 0.0	 0.0	 0.0	 0.0;
	18	 228.0	 -73.58	 40.02	 -73.58	 1.04858	 100.0	 1	 228.0	 0.0	 0.0	 0.0	 0.0	 0.0	 0.0	 0.0	 0.0	 0.0	 0.0	 0.0	 0.0;
	19	 2845.0	 1316.47	 1336.63	 -1468.98	 1.1	 100.0	 1	 2845.0	 0.0	 0.0	 0.0	 0.0	 0.0	 0.0	 0.0	 0.0	 0.0	 0.0	 0.0	 0.0;
	19	 406.8	 143.656	 162.7	 -162.7	 1.1	 100.0	 1	 406.8	 0.0	 0.0	 0.0	 0.0	 0.0	 0.0	 0.0	 0.0	 0.0	 0.0	 0.0	 0.0;
	20	 1200.0	 621.14	 621.14	 -523.38	 1.09764	 100.0	 1	 1200.0	 0.0	 0.0	 0.0	 0.0	 0.0	 0.0	 0.0	 0.0	 0.0	 0.0	 0.0	 0.0;
	20	 360.0	 236.64	 236.64	 236.64	 1.09764	 100.0	 1	 360.0	 0.0	 0.0	 0.0	 0.0	 0.0	 0.0	 0.0	 0.0	 0.0	 0.0	 0.0	 0.0;
	21	 665.0	 -306.07	 326.15	 -306.07	 1.07308	 100.0	 1	 665.0	 0.0	 0.0	 0.0	 0.0	 0.0	 0.0	 0.0	 0.0	 0.0	 0.0	 0.0	 0.0;
	22	 401.0	 -232.68	 189.72	 -232.68	 1.05983	 100.0	 1	 401.0	 0.0	 0.0	 0.0	 0.0	 0.0	 0.0	 0.0	 0.0	 0.0	 0.0	 0.0	 0.0;
	23	 3801.0	 -79.035	 1589.67	 -1388.27	 1.05595	 100.0	 1	 3801.0	 0.0	 0.0	 0.0	 0.0	 0.0	 0.0	 0.0	 0.0	 0.0	 0.0	 0.0	 0.0;
	23	 363.0	 -35.763	 84.81	 -153.99	 1.05595	 100.0	 1	 363.0	 0.0	 0.0	 0.0	 0.0	 0.0	 0.0	 0.0	 0.0	 0.0	 0.0	 0.0	 0.0;
	23	 470.4	 47.408	 317.76	 -211.43	 1.05595	 100.0	 1	 470.4	 0.0	 0.0	 0.0	 0.0	 0.0	 0.0	 0.0	 0.0	 0.0	 0.0	 0.0	 0.0;
	23	 4431.0	 -154.233	 1200.81	 -1262.24	 1.05595	 100.0	 1	 4431.0	 0.0	 0.0	 0.0	 0.0	 0.0	 0.0	 0.0	 0.0	 0.0	 0.0	 0.0	 0.0;
	23	 100.0	 0.0	 0.0	 0.0	 1.05595	 100.0	 1	 100.0	 0.0	 0.0	 0.0	 0.0	 0.0	 0.0	 0.0	 0.0	 0.0	 0.0	 0.0	 0.0;
	25	 2123.0	 296.194	 949.38	 -947.42	 1.0491	 100.0	 1	 2123.0	 0.0	 0.0	 0.0	 0.0	 0.0	 0.0	 0.0	 0.0	 0.0	 0.0	 0.0	 0.0;
	25	 1245.0	 0.0	 0.0	 0.0	 1.0491	 100.0	 1	 1245.0	 0.0	 0.0	 0.0	 0.0	 0.0	 0.0	 0.0	 0.0	 0.0	 0.0	 0.0	 0.0;
	26	 1966.0	 881.44	 881.44	 -431.35	 1.1	 100.0	 1	 1966.0	 0.0	 0.0	 0.0	 0.0	 0.0	 0.0	 0.0	 0.0	 0.0	 0.0	 0.0	 0.0;
	26	 0.0	 384.11	 384.11	 -294.62	 1.1	 100.0	 1	 1131.0	 0.0	 0.0	 0.0	 0.0	 0.0	 0.0	 0.0	 0.0	 0.0	 0.0	 0.0	 0.0;
	26	 1448.589	 1254.53	 1254.53	 -1114.64	 1.1	 100.0	 1	 3165.0	 0.0	 0.0	 0.0	 0.0	 0.0	 0.0	 0.0	 0.0	 0.0	 0.0	 0.0	 0.0;
	26	 0.0	 0.0	 0.0	 0.0	 1.1	 100.0	 1	 1355.0	 0.0	 0.0	 0.0	 0.0	 0.0	 0.0	 0.0	 0.0	 0.0	 0.0	 0.0	 0.0;
	27	 1081.0	 666.03	 666.03	 -541.79	 1.1	 100.0	 1	 1081.0	 0.0	 0.0	 0.0	 0.0	 0.0	 0.0	 0.0	 0.0	 0.0	 0.0	 0.0	 0.0;
	27	 300.0	 71.0	 71.0	 0.0	 1.1	 100.0	 1	 300.0	 0.0	 0.0	 0.0	 0.0	 0.0	 0.0	 0.0	 0.0	 0.0	 0.0	 0.0	 0.0;
	28	 1320.0	 657.82	 657.82	 -579.7	 1.07754	 100.0	 1	 1320.0	 0.0	 0.0	 0.0	 0.0	 0.0	 0.0	 0.0	 0.0	 0.0	 0.0	 0.0	 0.0;
	28	 208.0	 60.79	 60.79	 -71.21	 1.07754	 100.0	 1	 208.0	 0.0	 0.0	 0.0	 0.0	 0.0	 0.0	 0.0	 0.0	 0.0	 0.0	 0.0	 0.0;
	29	 1218.112	 455.32	 455.32	 -480.43	 1.08564	 100.0	 1	 1261.0	 0.0	 0.0	 0.0	 0.0	 0.0	 0.0	 0.0	 0.0	 0.0	 0.0	 0.0	 0.0;
	29	 905.0	 403.35	 403.35	 -412.03	 1.08564	 100.0	 1	 905.0	 0.0	 0.0	 0.0	 0.0	 0.0	 0.0	 0.0	 0.0	 0.0	 0.0	 0.0	 0.0;
	29	 140.0	 0.0	 0.0	 0.0	 1.08564	 100.0	 1	 140.0	 0.0	 0.0	 0.0	 0.0	 0.0	 0.0	 0.0	 0.0	 0.0	 0.0	 0.0	 0.0;
];

%% generator cost data
%	2	startup	shutdown	n	c(n-1)	...	c0
mpc.gencost = [
	2	 1500.0	 0.0	 3	   0.000000	   0.816753	   0.000000;
	2	 1500.0	 0.0	 3	   0.000000	   1.075915	   0.000000;
	2	 1500.0	 0.0	 3	   0.000000	   0.848101	   0.000000;
	2	 1500.0	 0.0	 3	   0.000000	   6.890404	   0.000000;
	2	 1500.0	 0.0	 3	   0.000000	   1.123794	   0.000000;
	2	 1500.0	 0.0	 3	   0.000000	   0.272726	   0.000000;
	2	 1500.0	 0.0	 3	   0.000000	   1.154216	   0.000000;
	2	 1500.0	 0.0	 3	   0.000000	   0.860523	   0.000000;
	2	 1500.0	 0.0	 3	   0.000000	   0.828380	   0.000000;
	2	 1500.0	 0.0	 3	   0.000000	   0.833091	   0.000000;
	2	 1500.0	 0.0	 3	   0.000000	   0.834253	   0.000000;
	2	 1500.0	 0.0	 3	   0.000000	   6.851702	   0.000000;
	2	 1500.0	 0.0	 3	   0.000000	   0.273494	   0.000000;
	2	 1500.0	 0.0	 3	   0.000000	   0.976266	   0.000000;
	2	 1500.0	 0.0	 3	   0.000000	   0.474393	   0.000000;
	2	 1500.0	 0.0	 3	   0.000000	   1.242228	   0.000000;
	2	 1500.0	 0.0	 3	   0.000000	   7.220847	   0.000000;
	2	 1500.0	 0.0	 3	   0.000000	   1.130158	   0.000000;
	2	 1500.0	 0.0	 3	   0.000000	   1.348240	   0.000000;
	2	 1500.0	 0.0	 3	   0.000000	   1.432190	   0.000000;
	2	 1500.0	 0.0	 3	   0.000000	   1.098766	   0.000000;
	2	 1500.0	 0.0	 3	   0.000000	   0.238951	   0.000000;
	2	 1500.0	 0.0	 3	   0.000000	   0.589471	   0.000000;
	2	 1500.0	 0.0	 3	   0.000000	   0.225459	   0.000000;
	2	 1500.0	 0.0	 3	   0.000000	   0.905478	   0.000000;
	2	 1500.0	 0.0	 3	   0.000000	   1.021435	   0.000000;
	2	 1500.0	 0.0	 3	   0.000000	   1.179066	   0.000000;
	2	 1500.0	 0.0	 3	   0.000000	   0.737942	   0.000000;
	2	 1500.0	 0.0	 3	   0.000000	   1.188357	   0.000000;
	2	 1500.0	 0.0	 3	   0.000000	   1.118090	   0.000000;
	2	 1500.0	 0.0	 3	   0.000000	   0.685077	   0.000000;
	2	 1500.0	 0.0	 3	   0.000000	   0.217202	   0.000000;
	2	 1500.0	 0.0	 3	   0.000000	   0.550879	   0.000000;
	2	 1500.0	 0.0	 3	   0.000000	   0.881717	   0.000000;
	2	 1500.0	 0.0	 3	   0.000000	   0.326811	   0.000000;
	2	 1500.0	 0.0	 3	   0.000000	   1.294938	   0.000000;
	2	 1500.0	 0.0	 3	   0.000000	   0.214075	   0.000000;
	2	 1500.0	 0.0	 3	   0.000000	   0.674370	   0.000000;
	2	 1500.0	 0.0	 3	   0.000000	   0.843337	   0.000000;
	2	 1500.0	 0.0	 3	   0.000000	   0.780507	   0.000000;
	2	 1500.0	 0.0	 3	   0.000000	   0.896300	   0.000000;
	2	 1500.0	 0.0	 3	   0.000000	   1.192504	   0.000000;
	2	 1500.0	 0.0	 3	   0.000000	   0.197892	   0.000000;
	2	 1500.0	 0.0	 3	   0.000000	   0.917884	   0.000000;
	2	 1500.0	 0.0	 3	   0.000000	   0.693054	   0.000000;
	2	 1500.0	 0.0	 3	   0.000000	   0.972377	   0.000000;
	2	 1500.0	 0.0	 3	   0.000000	   0.703284	   0.000000;
	2	 1500.0	 0.0	 3	   0.000000	   0.784566	   0.000000;
	2	 1500.0	 0.0	 3	   0.000000	   0.202010	   0.000000;
	2	 1500.0	 0.0	 3	   0.000000	   0.547247	   0.000000;
	2	 1500.0	 0.0	 3	   0.000000	   1.170062	   0.000000;
	2	 1500.0	 0.0	 3	   0.000000	   0.646308	   0.000000;
	2	 1500.0	 0.0	 3	   0.000000	   0.000000	   0.000000;
	2	 1500.0	 0.0	 3	   0.000000	   0.603325	   0.000000;
	2	 1500.0	 0.0	 3	   0.000000	   0.941578	   0.000000;
	2	 1500.0	 0.0	 3	   0.000000	   0.701512	   0.000000;
	2	 1500.0	 0.0	 3	   0.000000	   1.117037	   0.000000;
	2	 1500.0	 0.0	 3	   0.000000	   0.777734	   0.000000;
	2	 1500.0	 0.0	 3	   0.000000	   0.793837	   0.000000;
	2	 1500.0	 0.0	 3	   0.000000	   0.494775	   0.000000;
	2	 1500.0	 0.0	 3	   0.000000	   1.261632	   0.000000;
	2	 1500.0	 0.0	 3	   0.000000	   1.307594	   0.000000;
	2	 1500.0	 0.0	 3	   0.000000	   1.062217	   0.000000;
	2	 1500.0	 0.0	 3	   0.000000	   6.429936	   0.000000;
	2	 1500.0	 0.0	 3	   0.000000	   0.545667	   0.000000;
	2	 1500.0	 0.0	 3	   0.000000	   0.943798	   0.000000;
];

%% branch data
%	fbus	tbus	r	x	b	rateA	rateB	rateC	ratio	angle	status	angmin	angmax
mpc.branch = [
	1	 2	 0.0122	 0.02	 0.0856	 525.0	 525.0	 525.0	 0.0	 0.0	 1	 -3.036894	 3.036894;
	1	 3	 0.007	 0.15	 0.052	 132.0	 132.0	 132.0	 1.0	 2.0	 1	 -3.036894	 3.036894;
	1	 2	 0.0122	 0.02	 0.2844	 525.0	 525.0	 525.0	 0.0	 0.0	 1	 -3.036894	 3.036894;
	1	 3	 0.007	 0.15	 0.052	 132.0	 132.0	 132.0	 1.0	 2.0	 1	 -3.036894	 3.036894;
	2	 4	 0.0004	 0.065	 0.4454	 486.0	 486.0	 486.0	 0.0	 0.0	 1	 -3.036894	 3.036894;
	2	 4	 0.0004	 0.065	 0.5545	 486.0	 486.0	 486.0	 0.0	 0.0	 1	 -3.036894	 3.036894;
	4	 7	 0.00211	 0.0135	 0.1174	 1090.0	 1090.0	 1090.0	 0.0	 0.0	 1	 -3.036894	 3.036894;
	4	 6	 0.0013	 0.023	 0.1496	 1372.0	 1372.0	 1372.0	 0.0	 0.0	 1	 -3.036894	 3.036894;
	4	 6	 0.0013	 0.023	 0.1758	 1120.0	 1120.0	 1120.0	 0.0	 0.0	 1	 -3.036894	 3.036894;
	4	 5	 0.001	 0.024	 0.125	 1000.0	 1000.0	 1000.0	 0.0	 0.0	 1	 -3.036894	 3.036894;
	4	 5	 0.001	 0.024	 0.125	 1000.0	 1000.0	 1000.0	 0.0	 0.0	 1	 -3.036894	 3.036894;
	4	 7	 0.0021	 0.0135	 0.1538	 1090.0	 1090.0	 1090.0	 0.0	 0.0	 1	 -3.036894	 3.036894;
	5	 6	 0.00085	 0.01051	 0.38254	 1390.0	 1390.0	 1390.0	 0.0	 0.0	 1	 -3.036894	 3.036894;
	5	 6	 0.00151	 0.01613	 0.59296	 1390.0	 1390.0	 1390.0	 0.0	 0.0	 1	 -3.036894	 3.036894;
	6	 9	 0.00078	 0.00852	 0.0737	 2100.0	 2100.0	 2100.0	 0.0	 0.0	 1	 -3.036894	 3.036894;
	6	 9	 0.00078	 0.00852	 0.4635	 2100.0	 2100.0	 2100.0	 0.0	 0.0	 1	 -3.036894	 3.036894;
	7	 8	 0.0004	 0.0001	 0.728	 2180.0	 2180.0	 2180.0	 0.0	 0.0	 1	 -3.036894	 3.036894;
	7	 8	 0.0004	 0.0001	 1.2872	 2500.0	 2500.0	 2500.0	 0.0	 0.0	 1	 -3.036894	 3.036894;
	7	 6	 0.003	 0.2	 0.2939	 158.0	 158.0	 158.0	 0.0	 0.0	 1	 -3.036894	 3.036894;
	7	 6	 0.003	 0.2	 0.2939	 158.0	 158.0	 158.0	 0.0	 0.0	 1	 -3.036894	 3.036894;
	8	 10	 0.00083	 0.0175	 0.6624	 1803.0	 1803.0	 1803.0	 0.0	 0.0	 1	 -3.036894	 3.036894;
	8	 10	 0.00083	 0.0175	 0.6624	 1803.0	 1803.0	 1803.0	 0.0	 0.0	 1	 -3.036894	 3.036894;
	9	 11	 0.00164	 0.0163	 0.4868	 1390.0	 1390.0	 1390.0	 0.0	 0.0	 1	 -3.036894	 3.036894;
	9	 11	 0.00164	 0.0163	 0.4868	 1390.0	 1390.0	 1390.0	 0.0	 0.0	 1	 -3.036894	 3.036894;
	9	 10	 0.00352	 0.02453	 0.1898	 855.0	 855.0	 855.0	 0.0	 0.0	 1	 -3.036894	 3.036894;
	9	 10	 0.00492	 0.0343	 0.2502	 775.0	 775.0	 775.0	 0.0	 0.0	 1	 -3.036894	 3.036894;
	10	 15	 0.00053	 0.00835	 5.373	 3776.0	 3776.0	 3776.0	 0.0	 0.0	 1	 -3.036894	 3.036894;
	10	 15	 0.00052	 0.0063	 1.0636	 4020.0	 4020.0	 4020.0	 0.0	 0.0	 1	 -3.036894	 3.036894;
	11	 15	 0.0007	 0.042	 0.3907	 752.0	 752.0	 752.0	 0.0	 0.0	 1	 -3.036894	 3.036894;
	11	 15	 0.00099	 0.042	 0.5738	 752.0	 752.0	 752.0	 0.0	 0.0	 1	 -3.036894	 3.036894;
	11	 13	 0.0004	 0.0052	 0.2498	 2170.0	 2170.0	 2170.0	 0.0	 0.0	 1	 -3.036894	 3.036894;
	11	 13	 0.0004	 0.0052	 0.2664	 2210.0	 2210.0	 2210.0	 0.0	 0.0	 1	 -3.036894	 3.036894;
	11	 12	 0.0001	 0.0085	 0.0798	 3320.0	 3320.0	 3320.0	 0.0	 0.0	 1	 -3.036894	 3.036894;
	11	 12	 0.0001	 0.0085	 0.0798	 3320.0	 3320.0	 3320.0	 0.0	 0.0	 1	 -3.036894	 3.036894;
	12	 13	 0.00096	 0.01078	 0.385	 2919.0	 2919.0	 2919.0	 0.0	 0.0	 1	 -3.036894	 3.036894;
	12	 18	 0.00074	 0.009	 0.2911	 2400.0	 2400.0	 2400.0	 1.0	 2.0	 1	 -3.036894	 3.036894;
	12	 18	 0.00097	 0.009	 0.3835	 2400.0	 2400.0	 2400.0	 0.0	 0.0	 1	 -3.036894	 3.036894;
	12	 13	 0.00096	 0.01078	 0.385	 2919.0	 2919.0	 2919.0	 1.0	 2.0	 1	 -3.036894	 3.036894;
	13	 18	 0.00049	 0.007	 0.1943	 2400.0	 2400.0	 2400.0	 0.0	 0.0	 1	 -3.036894	 3.036894;
	13	 18	 0.00084	 0.007	 0.7759	 2400.0	 2400.0	 2400.0	 0.0	 0.0	 1	 -3.036894	 3.036894;
	13	 15	 0.00137	 0.023	 0.6643	 1240.0	 1240.0	 1240.0	 0.0	 0.0	 1	 -3.036894	 3.036894;
	13	 15	 0.00164	 0.023	 0.1104	 955.0	 955.0	 955.0	 0.0	 0.0	 1	 -3.036894	 3.036894;
	13	 14	 0.00107	 0.01163	 1.1745	 1040.0	 1040.0	 1040.0	 0.0	 0.0	 1	 -3.036894	 3.036894;
	13	 14	 0.00082	 0.01201	 1.2125	 1040.0	 1040.0	 1040.0	 0.0	 0.0	 1	 -3.036894	 3.036894;
	14	 16	 0.0005	 0.016	 0.2795	 1974.0	 1974.0	 1974.0	 0.0	 0.0	 1	 -3.036894	 3.036894;
	14	 16	 0.005	 0.018	 0.1466	 625.0	 625.0	 625.0	 0.0	 0.0	 1	 -3.036894	 3.036894;
	15	 16	 0.00033	 0.0052	 0.3534	 2770.0	 2770.0	 2770.0	 0.0	 0.0	 1	 -3.036894	 3.036894;
	15	 16	 0.00016	 0.00172	 0.3992	 5540.0	 5540.0	 5540.0	 0.0	 0.0	 1	 -3.036894	 3.036894;
	15	 14	 0.00019	 0.00222	 0.7592	 5000.0	 5000.0	 5000.0	 0.0	 0.0	 1	 -3.036894	 3.036894;
	15	 14	 0.00018	 0.00222	 0.5573	 5000.0	 5000.0	 5000.0	 0.0	 0.0	 1	 -3.036894	 3.036894;
	16	 19	 0.00056	 0.0141	 0.4496	 2239.0	 2239.0	 2239.0	 0.0	 0.0	 1	 -3.036894	 3.036894;
	16	 19	 0.00056	 0.0141	 0.4496	 2239.0	 2239.0	 2239.0	 0.0	 0.0	 1	 -3.036894	 3.036894;
	17	 16	 0.001	 0.01072	 0.2651	 2150.0	 2150.0	 2150.0	 0.0	 0.0	 1	 -3.036894	 3.036894;
	17	 16	 0.001	 0.01072	 0.4573	 1890.0	 1890.0	 1890.0	 0.0	 0.0	 1	 -3.036894	 3.036894;
	17	 22	 0.00068	 0.0097	 0.4566	 2100.0	 2100.0	 2100.0	 0.0	 0.0	 1	 -3.036894	 3.036894;
	17	 22	 0.00069	 0.0097	 0.4574	 2100.0	 2100.0	 2100.0	 0.0	 0.0	 1	 -3.036894	 3.036894;
	18	 17	 0.00042	 0.0018	 0.2349	 3100.0	 3100.0	 3100.0	 0.0	 0.0	 1	 -3.036894	 3.036894;
	18	 17	 0.00042	 0.0018	 0.2349	 3460.0	 3460.0	 3460.0	 0.0	 0.0	 1	 -3.036894	 3.036894;
	18	 23	 0.00138	 0.0096	 0.4829	 1970.0	 1970.0	 1970.0	 0.0	 0.0	 1	 -3.036894	 3.036894;
	18	 23	 0.00117	 0.0096	 0.4122	 1970.0	 1970.0	 1970.0	 0.0	 0.0	 1	 -3.036894	 3.036894;
	20	 26	 0.00035	 0.0023	 0.2249	 2780.0	 2780.0	 2780.0	 0.0	 0.0	 1	 -3.036894	 3.036894;
	20	 26	 0.00035	 0.0023	 0.2249	 2780.0	 2780.0	 2780.0	 0.0	 0.0	 1	 -3.036894	 3.036894;
	20	 19	 0.00178	 0.0213	 0.6682	 1478.0	 1478.0	 1478.0	 0.0	 0.0	 1	 -3.036894	 3.036894;
	20	 19	 0.00132	 0.0143	 0.3656	 1590.0	 1590.0	 1590.0	 0.0	 0.0	 1	 -3.036894	 3.036894;
	21	 16	 0.00145	 0.01824	 0.9169	 1727.0	 1727.0	 1727.0	 0.0	 0.0	 1	 -3.036894	 3.036894;
	21	 16	 0.00145	 0.01824	 0.9169	 1727.0	 1727.0	 1727.0	 0.0	 0.0	 1	 -3.036894	 3.036894;
	21	 25	 0.00025	 0.01	 0.1586	 2780.0	 2780.0	 2780.0	 0.0	 0.0	 1	 -3.036894	 3.036894;
	21	 25	 0.00025	 0.01	 0.1586	 2780.0	 2780.0	 2780.0	 0.0	 0.0	 1	 -3.036894	 3.036894;
	21	 20	 0.0012	 0.0048	 0.4446	 2780.0	 2780.0	 2780.0	 0.0	 0.0	 1	 -3.036894	 3.036894;
	21	 20	 0.0012	 0.0048	 0.7	 2780.0	 2780.0	 2780.0	 0.0	 0.0	 1	 -3.036894	 3.036894;
	21	 19	 0.00037	 0.0059	 0.294	 3030.0	 3030.0	 3030.0	 0.0	 0.0	 1	 -3.036894	 3.036894;
	21	 19	 0.00037	 0.0059	 0.2955	 2780.0	 2780.0	 2780.0	 0.0	 0.0	 1	 -3.036894	 3.036894;
	22	 16	 0.00178	 0.0172	 0.8403	 1827.0	 1827.0	 1827.0	 0.0	 0.0	 1	 -3.036894	 3.036894;
	22	 16	 0.00178	 0.0172	 0.627	 1827.0	 1827.0	 1827.0	 0.0	 0.0	 1	 -3.036894	 3.036894;
	22	 25	 0.00037	 0.0041	 0.4098	 3275.0	 3275.0	 3275.0	 0.0	 0.0	 1	 -3.036894	 3.036894;
	22	 25	 0.00034	 0.0041	 0.429	 3275.0	 3275.0	 3275.0	 0.0	 0.0	 1	 -3.036894	 3.036894;
	22	 21	 0.00019	 0.00111	 0.1232	 2780.0	 2780.0	 2780.0	 0.0	 0.0	 1	 -3.036894	 3.036894;
	22	 21	 0.00048	 0.0061	 0.3041	 2780.0	 2780.0	 2780.0	 0.0	 0.0	 1	 -3.036894	 3.036894;
	23	 29	 0.00151	 0.0182	 0.53	 1730.0	 1730.0	 1730.0	 0.0	 0.0	 1	 -3.036894	 3.036894;
	23	 24	 0.00086	 0.0008	 0.9622	 2780.0	 2780.0	 2780.0	 0.0	 0.0	 1	 -3.036894	 3.036894;
	23	 24	 0.00023	 0.0007	 2.8447	 4400.0	 4400.0	 4400.0	 0.0	 0.0	 1	 -3.036894	 3.036894;
	23	 22	 0.00055	 0.003	 0.3468	 2780.0	 2780.0	 2780.0	 0.0	 0.0	 1	 -3.036894	 3.036894;
	23	 22	 0.00039	 0.003	 0.2466	 2770.0	 2770.0	 2770.0	 0.0	 0.0	 1	 -3.036894	 3.036894;
	23	 29	 0.00151	 0.0182	 0.53	 1730.0	 1730.0	 1730.0	 0.0	 0.0	 1	 -3.036894	 3.036894;
	24	 28	 0.00068	 0.007	 0.2388	 2210.0	 2210.0	 2210.0	 0.0	 0.0	 1	 -3.036894	 3.036894;
	24	 25	 0.00104	 0.0091	 0.2918	 1390.0	 1390.0	 1390.0	 0.0	 0.0	 1	 -3.036894	 3.036894;
	24	 25	 0.00104	 0.0091	 0.2918	 1390.0	 1390.0	 1390.0	 0.0	 0.0	 1	 -3.036894	 3.036894;
	24	 28	 0.00068	 0.007	 0.2388	 2210.0	 2210.0	 2210.0	 0.0	 0.0	 1	 -3.036894	 3.036894;
	25	 26	 0.0002	 0.0057	 0.532	 5539.0	 5539.0	 5539.0	 0.0	 0.0	 1	 -3.036894	 3.036894;
	25	 26	 0.0002	 0.0057	 0.532	 5539.0	 5539.0	 5539.0	 0.0	 0.0	 1	 -3.036894	 3.036894;
	27	 26	 0.0002	 0.00503	 0.1797	 3100.0	 3100.0	 3100.0	 0.0	 0.0	 1	 -3.036894	 3.036894;
	27	 26	 0.0002	 0.00503	 0.1797	 3100.0	 3100.0	 3100.0	 0.0	 0.0	 1	 -3.036894	 3.036894;
	28	 27	 0.00038	 0.00711	 0.2998	 3070.0	 3070.0	 3070.0	 0.0	 0.0	 1	 -3.036894	 3.036894;
	28	 27	 0.00038	 0.00711	 0.2998	 3070.0	 3070.0	 3070.0	 0.0	 0.0	 1	 -3.036894	 3.036894;
	29	 28	 0.00051	 0.00796	 0.34	 2780.0	 2780.0	 2780.0	 0.0	 0.0	 1	 -3.036894	 3.036894;
	29	 28	 0.00051	 0.00796	 0.34	 2780.0	 2780.0	 2780.0	 0.0	 0.0	 1	 -3.036894	 3.036894;
	3	 4	 0.003	 0.041	 0.0044	 648.0	 648.0	 648.0	 0.0	 0.0	 1	 -3.036894	 3.036894;
	3	 4	 0.003	 0.041	 0.044	 648.0	 648.0	 648.0	 0.0	 0.0	 1	 -3.036894	 3.036894;
	3	 2	 0.03004	 0.077	 0.0124	 383.0	 383.0	 383.0	 0.0	 0.0	 1	 -3.036894	 3.036894;
];

% INFO    : === Translation Options ===
% INFO    : Phase Angle Bound:           3.036894 (deg.)
% INFO    : AC OPF Solution File:        ./nesta_case29_edin__sad.m.opf.sol
% INFO    : 
% INFO    : === Voltage Setpoint Replacement Notes ===
% INFO    : Bus 1	: V=1.1, theta=27.09981 -> V=1.03067, theta=9.87209
% INFO    : Bus 2	: V=1.1, theta=26.83211 -> V=1.1, theta=10.91504
% INFO    : Bus 3	: V=1.09038, theta=19.42766 -> V=1.04007, theta=7.87814
% INFO    : Bus 4	: V=1.1, theta=13.34583 -> V=1.1, theta=7.87814
% INFO    : Bus 5	: V=1.1, theta=7.77868 -> V=1.1, theta=4.88262
% INFO    : Bus 6	: V=1.09911, theta=6.34844 -> V=1.09328, theta=4.84125
% INFO    : Bus 7	: V=1.1, theta=11.86565 -> V=1.1, theta=6.81395
% INFO    : Bus 8	: V=1.0966, theta=11.80744 -> V=1.09847, theta=6.79218
% INFO    : Bus 9	: V=1.1, theta=4.95232 -> V=1.09502, theta=3.92952
% INFO    : Bus 10	: V=1.09704, theta=4.35996 -> V=1.0856, theta=3.75529
% INFO    : Bus 11	: V=1.1, theta=3.14549 -> V=1.1, theta=2.83089
% INFO    : Bus 12	: V=1.1, theta=4.97814 -> V=1.1, theta=2.42812
% INFO    : Bus 13	: V=1.08864, theta=1.32653 -> V=1.07985, theta=0.05147
% INFO    : Bus 14	: V=1.09241, theta=2.69958 -> V=1.09312, theta=0.06369
% INFO    : Bus 15	: V=1.09784, theta=3.48652 -> V=1.1, theta=0.7537
% INFO    : Bus 16	: V=1.1, theta=6.00053 -> V=1.1, theta=2.12403
% INFO    : Bus 17	: V=1.09152, theta=0.86454 -> V=1.05395, theta=0.02944
% INFO    : Bus 18	: V=1.08369, theta=-0.15865 -> V=1.04858, theta=-0.60878
% INFO    : Bus 19	: V=1.1, theta=2.76204 -> V=1.1, theta=1.2503
% INFO    : Bus 20	: V=1.09899, theta=1.57572 -> V=1.09764, theta=0.07474
% INFO    : Bus 21	: V=1.09188, theta=0.66962 -> V=1.07308, theta=-0.3889
% INFO    : Bus 22	: V=1.08733, theta=-0.28414 -> V=1.05983, theta=-0.91286
% INFO    : Bus 23	: V=1.0956, theta=-0.5947 -> V=1.05595, theta=-0.03264
% INFO    : Bus 24	: V=1.08722, theta=-1.23367 -> V=1.05203, theta=-0.68539
% INFO    : Bus 25	: V=1.07353, theta=-2.64013 -> V=1.0491, theta=-3.08353
% INFO    : Bus 26	: V=1.1, theta=1.76769 -> V=1.1, theta=-0.04664
% INFO    : Bus 27	: V=1.1, theta=0.0 -> V=1.1, theta=-0.0
% INFO    : Bus 28	: V=1.09038, theta=-3.55406 -> V=1.07754, theta=-1.46033
% INFO    : Bus 29	: V=1.0948, theta=-4.89754 -> V=1.08564, theta=-1.52314
% INFO    : 
% INFO    : === Generator Setpoint Replacement Notes ===
% INFO    : Gen at bus 1	: Pg=668.0, Qg=-10.406 -> Pg=0.0, Qg=-188.46
% INFO    : Gen at bus 1	: Vg=1.1 -> Vg=1.03067
% INFO    : Gen at bus 1	: Pg=0.0, Qg=23.381 -> Pg=0.0, Qg=-66.3
% INFO    : Gen at bus 1	: Vg=1.1 -> Vg=1.03067
% INFO    : Gen at bus 1	: Pg=0.0, Qg=50.399 -> Pg=0.0, Qg=-100.0
% INFO    : Gen at bus 1	: Vg=1.1 -> Vg=1.03067
% INFO    : Gen at bus 1	: Pg=0.0, Qg=-0.557 -> Pg=0.0, Qg=-8.99
% INFO    : Gen at bus 1	: Vg=1.1 -> Vg=1.03067
% INFO    : Gen at bus 2	: Pg=0.0, Qg=-1.762 -> Pg=0.0, Qg=-1.566
% INFO    : Gen at bus 2	: Vg=1.1 -> Vg=1.1
% INFO    : Gen at bus 2	: Pg=1524.0, Qg=108.901 -> Pg=1298.57, Qg=549.863
% INFO    : Gen at bus 2	: Vg=1.1 -> Vg=1.1
% INFO    : Gen at bus 2	: Pg=0.0, Qg=0.0 -> Pg=0.0, Qg=0.0
% INFO    : Gen at bus 2	: Vg=1.1 -> Vg=1.1
% INFO    : Gen at bus 3	: Pg=250.576, Qg=35.929 -> Pg=0.0, Qg=-158.14
% INFO    : Gen at bus 3	: Vg=1.09038 -> Vg=1.04007
% INFO    : Gen at bus 3	: Pg=19.0, Qg=-3.51 -> Pg=19.0, Qg=-3.51
% INFO    : Gen at bus 3	: Vg=1.09038 -> Vg=1.04007
% INFO    : Gen at bus 3	: Pg=553.12, Qg=68.438 -> Pg=419.61, Qg=-66.17
% INFO    : Gen at bus 3	: Vg=1.09038 -> Vg=1.04007
% INFO    : Gen at bus 3	: Pg=15.12, Qg=-0.255 -> Pg=0.001, Qg=-7.29
% INFO    : Gen at bus 3	: Vg=1.09038 -> Vg=1.04007
% INFO    : Gen at bus 4	: Pg=0.0, Qg=-0.685 -> Pg=0.0, Qg=-0.576
% INFO    : Gen at bus 4	: Vg=1.1 -> Vg=1.1
% INFO    : Gen at bus 4	: Pg=2284.0, Qg=340.342 -> Pg=2284.0, Qg=437.12
% INFO    : Gen at bus 4	: Vg=1.1 -> Vg=1.1
% INFO    : Gen at bus 4	: Pg=0.0, Qg=29.879 -> Pg=0.0, Qg=44.777
% INFO    : Gen at bus 4	: Vg=1.1 -> Vg=1.1
% INFO    : Gen at bus 4	: Pg=259.0, Qg=26.526 -> Pg=259.0, Qg=38.974
% INFO    : Gen at bus 4	: Vg=1.1 -> Vg=1.1
% INFO    : Gen at bus 5	: Pg=0.0, Qg=119.833 -> Pg=0.0, Qg=200.672
% INFO    : Gen at bus 5	: Vg=1.1 -> Vg=1.1
% INFO    : Gen at bus 5	: Pg=0.0, Qg=2.849 -> Pg=0.0, Qg=2.969
% INFO    : Gen at bus 5	: Vg=1.1 -> Vg=1.1
% INFO    : Gen at bus 6	: Pg=0.0, Qg=271.677 -> Pg=995.808, Qg=-45.425
% INFO    : Gen at bus 6	: Vg=1.09911 -> Vg=1.09328
% INFO    : Gen at bus 6	: Pg=0.0, Qg=1.11 -> Pg=0.0, Qg=-0.418
% INFO    : Gen at bus 6	: Vg=1.09911 -> Vg=1.09328
% INFO    : Gen at bus 6	: Pg=0.0, Qg=-2.194 -> Pg=0.0, Qg=-2.723
% INFO    : Gen at bus 6	: Vg=1.09911 -> Vg=1.09328
% INFO    : Gen at bus 7	: Pg=0.0, Qg=-10.082 -> Pg=0.0, Qg=-5.613
% INFO    : Gen at bus 7	: Vg=1.1 -> Vg=1.1
% INFO    : Gen at bus 7	: Pg=1215.0, Qg=-34.924 -> Pg=1215.0, Qg=46.872
% INFO    : Gen at bus 7	: Vg=1.1 -> Vg=1.1
% INFO    : Gen at bus 7	: Pg=1102.0, Qg=-12.802 -> Pg=94.596, Qg=-0.636
% INFO    : Gen at bus 7	: Vg=1.1 -> Vg=1.1
% INFO    : Gen at bus 10	: Pg=1207.0, Qg=60.13 -> Pg=1207.0, Qg=-228.138
% INFO    : Gen at bus 10	: Vg=1.09704 -> Vg=1.0856
% INFO    : Gen at bus 10	: Pg=0.0, Qg=30.277 -> Pg=1875.0, Qg=-471.816
% INFO    : Gen at bus 10	: Vg=1.09704 -> Vg=1.0856
% INFO    : Gen at bus 10	: Pg=0.0, Qg=18.892 -> Pg=420.0, Qg=-7.278
% INFO    : Gen at bus 10	: Vg=1.09704 -> Vg=1.0856
% INFO    : Gen at bus 11	: Pg=0.0, Qg=-57.6 -> Pg=180.0, Qg=-57.6
% INFO    : Gen at bus 11	: Vg=1.1 -> Vg=1.1
% INFO    : Gen at bus 11	: Pg=2406.0, Qg=553.691 -> Pg=2406.0, Qg=720.909
% INFO    : Gen at bus 11	: Vg=1.1 -> Vg=1.1
% INFO    : Gen at bus 11	: Pg=0.0, Qg=358.73 -> Pg=1987.0, Qg=458.516
% INFO    : Gen at bus 11	: Vg=1.1 -> Vg=1.1
% INFO    : Gen at bus 11	: Pg=0.0, Qg=12.618 -> Pg=155.0, Qg=14.655
% INFO    : Gen at bus 11	: Vg=1.1 -> Vg=1.1
% INFO    : Gen at bus 11	: Pg=1039.0, Qg=214.773 -> Pg=1039.0, Qg=292.055
% INFO    : Gen at bus 11	: Vg=1.1 -> Vg=1.1
% INFO    : Gen at bus 12	: Pg=980.0, Qg=219.424 -> Pg=980.0, Qg=524.291
% INFO    : Gen at bus 12	: Vg=1.1 -> Vg=1.1
% INFO    : Gen at bus 12	: Pg=1885.0, Qg=452.652 -> Pg=0.0, Qg=902.793
% INFO    : Gen at bus 12	: Vg=1.1 -> Vg=1.1
% INFO    : Gen at bus 12	: Pg=210.0, Qg=17.429 -> Pg=0.0, Qg=72.677
% INFO    : Gen at bus 12	: Vg=1.1 -> Vg=1.1
% INFO    : Gen at bus 12	: Pg=2004.0, Qg=3.44 -> Pg=1593.207, Qg=289.085
% INFO    : Gen at bus 12	: Vg=1.1 -> Vg=1.1
% INFO    : Gen at bus 15	: Pg=0.0, Qg=876.742 -> Pg=0.0, Qg=1673.588
% INFO    : Gen at bus 15	: Vg=1.09784 -> Vg=1.1
% INFO    : Gen at bus 16	: Pg=3987.0, Qg=152.039 -> Pg=3987.0, Qg=352.821
% INFO    : Gen at bus 16	: Vg=1.1 -> Vg=1.1
% INFO    : Gen at bus 16	: Pg=7040.0, Qg=169.022 -> Pg=2840.421, Qg=1261.017
% INFO    : Gen at bus 16	: Vg=1.1 -> Vg=1.1
% INFO    : Gen at bus 16	: Pg=1218.0, Qg=102.95 -> Pg=0.0, Qg=146.579
% INFO    : Gen at bus 16	: Vg=1.1 -> Vg=1.1
% INFO    : Gen at bus 17	: Pg=2021.0, Qg=814.229 -> Pg=2021.0, Qg=-405.94
% INFO    : Gen at bus 17	: Vg=1.09152 -> Vg=1.05395
% INFO    : Gen at bus 18	: Pg=281.679, Qg=884.97 -> Pg=1982.0, Qg=-534.17
% INFO    : Gen at bus 18	: Vg=1.08369 -> Vg=1.04858
% INFO    : Gen at bus 18	: Pg=0.0, Qg=40.02 -> Pg=228.0, Qg=-73.58
% INFO    : Gen at bus 18	: Vg=1.08369 -> Vg=1.04858
% INFO    : Gen at bus 19	: Pg=2845.0, Qg=769.938 -> Pg=2845.0, Qg=1316.47
% INFO    : Gen at bus 19	: Vg=1.1 -> Vg=1.1
% INFO    : Gen at bus 19	: Pg=0.0, Qg=17.248 -> Pg=406.8, Qg=143.656
% INFO    : Gen at bus 19	: Vg=1.1 -> Vg=1.1
% INFO    : Gen at bus 20	: Pg=1200.0, Qg=11.314 -> Pg=1200.0, Qg=621.14
% INFO    : Gen at bus 20	: Vg=1.09899 -> Vg=1.09764
% INFO    : Gen at bus 20	: Pg=0.0, Qg=236.64 -> Pg=360.0, Qg=236.64
% INFO    : Gen at bus 20	: Vg=1.09899 -> Vg=1.09764
% INFO    : Gen at bus 21	: Pg=665.0, Qg=326.15 -> Pg=665.0, Qg=-306.07
% INFO    : Gen at bus 21	: Vg=1.09188 -> Vg=1.07308
% INFO    : Gen at bus 22	: Pg=401.0, Qg=189.72 -> Pg=401.0, Qg=-232.68
% INFO    : Gen at bus 22	: Vg=1.08733 -> Vg=1.05983
% INFO    : Gen at bus 23	: Pg=3801.0, Qg=1235.982 -> Pg=3801.0, Qg=-79.035
% INFO    : Gen at bus 23	: Vg=1.0956 -> Vg=1.05595
% INFO    : Gen at bus 23	: Pg=363.0, Qg=-17.509 -> Pg=363.0, Qg=-35.763
% INFO    : Gen at bus 23	: Vg=1.0956 -> Vg=1.05595
% INFO    : Gen at bus 23	: Pg=0.0, Qg=131.326 -> Pg=470.4, Qg=47.408
% INFO    : Gen at bus 23	: Vg=1.0956 -> Vg=1.05595
% INFO    : Gen at bus 23	: Pg=4431.0, Qg=858.099 -> Pg=4431.0, Qg=-154.233
% INFO    : Gen at bus 23	: Vg=1.0956 -> Vg=1.05595
% INFO    : Gen at bus 23	: Pg=100.0, Qg=0.0 -> Pg=100.0, Qg=0.0
% INFO    : Gen at bus 23	: Vg=1.0956 -> Vg=1.05595
% INFO    : Gen at bus 25	: Pg=2123.0, Qg=949.38 -> Pg=2123.0, Qg=296.194
% INFO    : Gen at bus 25	: Vg=1.07353 -> Vg=1.0491
% INFO    : Gen at bus 25	: Pg=0.0, Qg=0.0 -> Pg=1245.0, Qg=0.0
% INFO    : Gen at bus 25	: Vg=1.07353 -> Vg=1.0491
% INFO    : Gen at bus 26	: Pg=1966.0, Qg=486.271 -> Pg=1966.0, Qg=881.44
% INFO    : Gen at bus 26	: Vg=1.1 -> Vg=1.1
% INFO    : Gen at bus 26	: Pg=0.0, Qg=123.27 -> Pg=0.0, Qg=384.11
% INFO    : Gen at bus 26	: Vg=1.1 -> Vg=1.1
% INFO    : Gen at bus 26	: Pg=3165.0, Qg=748.822 -> Pg=1448.589, Qg=1254.53
% INFO    : Gen at bus 26	: Vg=1.1 -> Vg=1.1
% INFO    : Gen at bus 26	: Pg=1355.0, Qg=0.0 -> Pg=0.0, Qg=0.0
% INFO    : Gen at bus 26	: Vg=1.1 -> Vg=1.1
% INFO    : Gen at bus 27	: Pg=1081.0, Qg=374.693 -> Pg=1081.0, Qg=666.03
% INFO    : Gen at bus 27	: Vg=1.1 -> Vg=1.1
% INFO    : Gen at bus 27	: Pg=0.0, Qg=36.973 -> Pg=300.0, Qg=71.0
% INFO    : Gen at bus 27	: Vg=1.1 -> Vg=1.1
% INFO    : Gen at bus 28	: Pg=0.0, Qg=657.819 -> Pg=1320.0, Qg=657.82
% INFO    : Gen at bus 28	: Vg=1.09038 -> Vg=1.07754
% INFO    : Gen at bus 28	: Pg=0.0, Qg=60.789 -> Pg=208.0, Qg=60.79
% INFO    : Gen at bus 28	: Vg=1.09038 -> Vg=1.07754
% INFO    : Gen at bus 29	: Pg=0.0, Qg=290.272 -> Pg=1218.112, Qg=455.32
% INFO    : Gen at bus 29	: Vg=1.0948 -> Vg=1.08564
% INFO    : Gen at bus 29	: Pg=905.0, Qg=244.243 -> Pg=905.0, Qg=403.35
% INFO    : Gen at bus 29	: Vg=1.0948 -> Vg=1.08564
% INFO    : Gen at bus 29	: Pg=0.0, Qg=0.0 -> Pg=140.0, Qg=0.0
% INFO    : Gen at bus 29	: Vg=1.0948 -> Vg=1.08564
% INFO    : 
% INFO    : === Writing Matpower Case File Notes ===
